# OC package for  MODFLOW-2005, generated by Flopy.
HEAD PRINT FORMAT   0
HEAD SAVE UNIT    51
DRAWDOWN PRINT FORMAT   0
COMPACT BUDGET AUX

period 1 step 1 
print head
save head
print budget
save budget

period 2 step 1 
print head
save head
print budget
save budget

period 2 step 2 
print head
save head
print budget
save budget

period 2 step 3 
print head
save head
print budget
save budget

period 2 step 4 
print head
save head
print budget
save budget

period 2 step 5 
print head
save head
print budget
save budget

period 2 step 6 
print head
save head
print budget
save budget

period 2 step 7 
print head
save head
print budget
save budget

period 2 step 8 
print head
save head
print budget
save budget

period 2 step 9 
print head
save head
print budget
save budget

period 2 step 10 
print head
save head
print budget
save budget

period 2 step 11 
print head
save head
print budget
save budget

period 2 step 12 
print head
save head
print budget
save budget

period 2 step 13 
print head
save head
print budget
save budget

period 2 step 14 
print head
save head
print budget
save budget

period 2 step 15 
print head
save head
print budget
save budget

period 2 step 16 
print head
save head
print budget
save budget

period 2 step 17 
print head
save head
print budget
save budget

period 2 step 18 
print head
save head
print budget
save budget

period 2 step 19 
print head
save head
print budget
save budget

period 2 step 20 
print head
save head
print budget
save budget

period 2 step 21 
print head
save head
print budget
save budget

period 2 step 22 
print head
save head
print budget
save budget

period 2 step 23 
print head
save head
print budget
save budget

period 2 step 24 
print head
save head
print budget
save budget

period 2 step 25 
print head
save head
print budget
save budget

period 2 step 26 
print head
save head
print budget
save budget

period 2 step 27 
print head
save head
print budget
save budget

period 2 step 28 
print head
save head
print budget
save budget

period 2 step 29 
print head
save head
print budget
save budget

period 2 step 30 
print head
save head
print budget
save budget

period 2 step 31 
print head
save head
print budget
save budget

period 2 step 32 
print head
save head
print budget
save budget

period 2 step 33 
print head
save head
print budget
save budget

period 2 step 34 
print head
save head
print budget
save budget

period 2 step 35 
print head
save head
print budget
save budget

period 2 step 36 
print head
save head
print budget
save budget

period 2 step 37 
print head
save head
print budget
save budget

period 2 step 38 
print head
save head
print budget
save budget

period 2 step 39 
print head
save head
print budget
save budget

period 2 step 40 
print head
save head
print budget
save budget

period 2 step 41 
print head
save head
print budget
save budget

period 2 step 42 
print head
save head
print budget
save budget

period 2 step 43 
print head
save head
print budget
save budget

period 2 step 44 
print head
save head
print budget
save budget

period 2 step 45 
print head
save head
print budget
save budget

period 2 step 46 
print head
save head
print budget
save budget

period 2 step 47 
print head
save head
print budget
save budget

period 2 step 48 
print head
save head
print budget
save budget

period 2 step 49 
print head
save head
print budget
save budget

period 2 step 50 
print head
save head
print budget
save budget

period 2 step 51 
print head
save head
print budget
save budget

period 2 step 52 
print head
save head
print budget
save budget

period 2 step 53 
print head
save head
print budget
save budget

period 2 step 54 
print head
save head
print budget
save budget

period 2 step 55 
print head
save head
print budget
save budget

period 2 step 56 
print head
save head
print budget
save budget

period 2 step 57 
print head
save head
print budget
save budget

period 2 step 58 
print head
save head
print budget
save budget

period 2 step 59 
print head
save head
print budget
save budget

period 2 step 60 
print head
save head
print budget
save budget

period 2 step 61 
print head
save head
print budget
save budget

period 2 step 62 
print head
save head
print budget
save budget

period 2 step 63 
print head
save head
print budget
save budget

period 2 step 64 
print head
save head
print budget
save budget

period 2 step 65 
print head
save head
print budget
save budget

period 2 step 66 
print head
save head
print budget
save budget

period 2 step 67 
print head
save head
print budget
save budget

period 2 step 68 
print head
save head
print budget
save budget

period 2 step 69 
print head
save head
print budget
save budget

period 2 step 70 
print head
save head
print budget
save budget

period 2 step 71 
print head
save head
print budget
save budget

period 2 step 72 
print head
save head
print budget
save budget

period 2 step 73 
print head
save head
print budget
save budget

period 2 step 74 
print head
save head
print budget
save budget

period 2 step 75 
print head
save head
print budget
save budget

period 2 step 76 
print head
save head
print budget
save budget

period 2 step 77 
print head
save head
print budget
save budget

period 2 step 78 
print head
save head
print budget
save budget

period 2 step 79 
print head
save head
print budget
save budget

period 2 step 80 
print head
save head
print budget
save budget

period 2 step 81 
print head
save head
print budget
save budget

period 2 step 82 
print head
save head
print budget
save budget

period 2 step 83 
print head
save head
print budget
save budget

period 2 step 84 
print head
save head
print budget
save budget

period 2 step 85 
print head
save head
print budget
save budget

period 2 step 86 
print head
save head
print budget
save budget

period 2 step 87 
print head
save head
print budget
save budget

period 2 step 88 
print head
save head
print budget
save budget

period 2 step 89 
print head
save head
print budget
save budget

period 2 step 90 
print head
save head
print budget
save budget

period 2 step 91 
print head
save head
print budget
save budget

period 2 step 92 
print head
save head
print budget
save budget

period 2 step 93 
print head
save head
print budget
save budget

period 2 step 94 
print head
save head
print budget
save budget

period 2 step 95 
print head
save head
print budget
save budget

period 2 step 96 
print head
save head
print budget
save budget

period 2 step 97 
print head
save head
print budget
save budget

period 2 step 98 
print head
save head
print budget
save budget

period 2 step 99 
print head
save head
print budget
save budget

period 2 step 100 
print head
save head
print budget
save budget

period 3 step 1 
print head
save head
print budget
save budget

period 3 step 2 
print head
save head
print budget
save budget

period 3 step 3 
print head
save head
print budget
save budget

period 3 step 4 
print head
save head
print budget
save budget

period 3 step 5 
print head
save head
print budget
save budget

period 3 step 6 
print head
save head
print budget
save budget

period 3 step 7 
print head
save head
print budget
save budget

period 3 step 8 
print head
save head
print budget
save budget

period 3 step 9 
print head
save head
print budget
save budget

period 3 step 10 
print head
save head
print budget
save budget

period 3 step 11 
print head
save head
print budget
save budget

period 3 step 12 
print head
save head
print budget
save budget

period 3 step 13 
print head
save head
print budget
save budget

period 3 step 14 
print head
save head
print budget
save budget

period 3 step 15 
print head
save head
print budget
save budget

period 3 step 16 
print head
save head
print budget
save budget

period 3 step 17 
print head
save head
print budget
save budget

period 3 step 18 
print head
save head
print budget
save budget

period 3 step 19 
print head
save head
print budget
save budget

period 3 step 20 
print head
save head
print budget
save budget

period 3 step 21 
print head
save head
print budget
save budget

period 3 step 22 
print head
save head
print budget
save budget

period 3 step 23 
print head
save head
print budget
save budget

period 3 step 24 
print head
save head
print budget
save budget

period 3 step 25 
print head
save head
print budget
save budget

period 3 step 26 
print head
save head
print budget
save budget

period 3 step 27 
print head
save head
print budget
save budget

period 3 step 28 
print head
save head
print budget
save budget

period 3 step 29 
print head
save head
print budget
save budget

period 3 step 30 
print head
save head
print budget
save budget

period 3 step 31 
print head
save head
print budget
save budget

period 3 step 32 
print head
save head
print budget
save budget

period 3 step 33 
print head
save head
print budget
save budget

period 3 step 34 
print head
save head
print budget
save budget

period 3 step 35 
print head
save head
print budget
save budget

period 3 step 36 
print head
save head
print budget
save budget

period 3 step 37 
print head
save head
print budget
save budget

period 3 step 38 
print head
save head
print budget
save budget

period 3 step 39 
print head
save head
print budget
save budget

period 3 step 40 
print head
save head
print budget
save budget

period 3 step 41 
print head
save head
print budget
save budget

period 3 step 42 
print head
save head
print budget
save budget

period 3 step 43 
print head
save head
print budget
save budget

period 3 step 44 
print head
save head
print budget
save budget

period 3 step 45 
print head
save head
print budget
save budget

period 3 step 46 
print head
save head
print budget
save budget

period 3 step 47 
print head
save head
print budget
save budget

period 3 step 48 
print head
save head
print budget
save budget

period 3 step 49 
print head
save head
print budget
save budget

period 3 step 50 
print head
save head
print budget
save budget

period 3 step 51 
print head
save head
print budget
save budget

period 3 step 52 
print head
save head
print budget
save budget

period 3 step 53 
print head
save head
print budget
save budget

period 3 step 54 
print head
save head
print budget
save budget

period 3 step 55 
print head
save head
print budget
save budget

period 3 step 56 
print head
save head
print budget
save budget

period 3 step 57 
print head
save head
print budget
save budget

period 3 step 58 
print head
save head
print budget
save budget

period 3 step 59 
print head
save head
print budget
save budget

period 3 step 60 
print head
save head
print budget
save budget

period 3 step 61 
print head
save head
print budget
save budget

period 3 step 62 
print head
save head
print budget
save budget

period 3 step 63 
print head
save head
print budget
save budget

period 3 step 64 
print head
save head
print budget
save budget

period 3 step 65 
print head
save head
print budget
save budget

period 3 step 66 
print head
save head
print budget
save budget

period 3 step 67 
print head
save head
print budget
save budget

period 3 step 68 
print head
save head
print budget
save budget

period 3 step 69 
print head
save head
print budget
save budget

period 3 step 70 
print head
save head
print budget
save budget

period 3 step 71 
print head
save head
print budget
save budget

period 3 step 72 
print head
save head
print budget
save budget

period 3 step 73 
print head
save head
print budget
save budget

period 3 step 74 
print head
save head
print budget
save budget

period 3 step 75 
print head
save head
print budget
save budget

period 3 step 76 
print head
save head
print budget
save budget

period 3 step 77 
print head
save head
print budget
save budget

period 3 step 78 
print head
save head
print budget
save budget

period 3 step 79 
print head
save head
print budget
save budget

period 3 step 80 
print head
save head
print budget
save budget

period 3 step 81 
print head
save head
print budget
save budget

period 3 step 82 
print head
save head
print budget
save budget

period 3 step 83 
print head
save head
print budget
save budget

period 3 step 84 
print head
save head
print budget
save budget

period 3 step 85 
print head
save head
print budget
save budget

period 3 step 86 
print head
save head
print budget
save budget

period 3 step 87 
print head
save head
print budget
save budget

period 3 step 88 
print head
save head
print budget
save budget

period 3 step 89 
print head
save head
print budget
save budget

period 3 step 90 
print head
save head
print budget
save budget

period 3 step 91 
print head
save head
print budget
save budget

period 3 step 92 
print head
save head
print budget
save budget

period 3 step 93 
print head
save head
print budget
save budget

period 3 step 94 
print head
save head
print budget
save budget

period 3 step 95 
print head
save head
print budget
save budget

period 3 step 96 
print head
save head
print budget
save budget

period 3 step 97 
print head
save head
print budget
save budget

period 3 step 98 
print head
save head
print budget
save budget

period 3 step 99 
print head
save head
print budget
save budget

period 3 step 100 
print head
save head
print budget
save budget

